<?xml version="1.0" encoding="UTF-8"?>

<!-- generated on 2024-04-24 22:46:31 by Eclipse SUMO sumo Version 1.19.0
-->

<configuration xmlns:xsi="http://www.w3.org/2001/XMLSchema-instance" xsi:noNamespaceSchemaLocation="http://sumo.dlr.de/xsd/sumoConfiguration.xsd">

    <input>
        <net-file value="../../../Program Files (x86)/Eclipse/Sumo/bin/test"/>
    </input>

</configuration>
