<?xml version="1.0" encoding="UTF-8"?>

<!-- generated on 2024-04-26 20:04:16 by Eclipse SUMO sumo Version 1.19.0
-->

<configuration xmlns:xsi="http://www.w3.org/2001/XMLSchema-instance" xsi:noNamespaceSchemaLocation="http://sumo.dlr.de/xsd/sumoConfiguration.xsd">

    <input>
        <net-file value="net2.net.xml"/>
        <route-files value="mynet.rou.xml"/>
    </input>

</configuration>
