<?xml version="1.0" encoding="UTF-8"?>

<!-- generated on 2024-04-26 19:13:06 by Eclipse SUMO netedit Version 1.19.0
-->

<routes xmlns:xsi="http://www.w3.org/2001/XMLSchema-instance" xsi:noNamespaceSchemaLocation="http://sumo.dlr.de/xsd/routes_file.xsd">
    <!-- Routes -->
    <route id="r_0" edges="C3C2 C2D2"/>
    <route id="r_1" edges="C3C2 C2C1"/>
    <route id="r_10" edges="C1C2 C2C3"/>
    <route id="r_11" edges="C1C2 C2D2"/>
    <route id="r_2" edges="C3C2 C2B2"/>
    <route id="r_3" edges="D2C2 C2C3"/>
    <route id="r_4" edges="D2C2 C2B2"/>
    <route id="r_5" edges="D2C2 C2C1"/>
    <route id="r_6" edges="B2C2 C2C3"/>
    <route id="r_7" edges="B2C2 C2D2"/>
    <route id="r_8" edges="B2C2 C2C1"/>
    <route id="r_9" edges="C1C2 C2B2"/>
    <routeDistribution id="rd_0" routes="r_0 r_1 r_10 r_11 r_2 r_3 r_4 r_5 r_6 r_7 r_8 r_9" probabilities="104.00 224.00 232.00 324.00 240.00 252.00 2336.00 352.00 344.00 1284.00 384.00 828.00"/>
    <!-- Vehicles, persons and containers (sorted by depart) -->
    <vehicle id="v_0" depart="0.00" route="r_3"/>
    <flow id="f_0" begin="0.00" route="r_0" end="100000.00" vehsPerHour="104.00115556839520536414"/>
    <flow id="f_1" begin="0.00" route="r_1" end="100000.00" vehsPerHour="224.00597349262645252566"/>
    <flow id="f_10" begin="0.00" route="r_2" end="100000.00" vehsPerHour="240"/>
    <flow id="f_11" begin="0.00" route="r_3" end="100000.00" vehsPerHour="251.99496010079798224979"/>
    <flow id="f_2" begin="0.00" route="r_4" end="100000.00" vehsPerHour="2336.14536015574321936583"/>
    <flow id="f_3" begin="0.00" route="r_5" end="100000.00" vehsPerHour="352.00938691698445381917"/>
    <flow id="f_4" begin="0.00" route="r_6" end="100000.00" vehsPerHour="344.00382226469184843154"/>
    <flow id="f_5" begin="0.00" route="r_7" end="100000.00" vehsPerHour="1283.88017118402285632328"/>
    <flow id="f_6" begin="0.00" route="r_8" end="100000.00" vehsPerHour="384"/>
    <flow id="f_7" begin="0.00" route="r_9" end="100000.00" vehsPerHour="827.96688132474707799702"/>
    <flow id="f_8" begin="0.00" route="r_10" end="100000.00" vehsPerHour="232.00360894502804853801"/>
    <flow id="f_9" begin="0.00" route="r_11" end="100000.00" vehsPerHour="324.003240032400299242"/>
</routes>
