<?xml version="1.0" encoding="UTF-8"?>

<!-- generated on 2024-04-26 20:04:16 by Eclipse SUMO netedit Version 1.19.0
<configuration xmlns:xsi="http://www.w3.org/2001/XMLSchema-instance" xsi:noNamespaceSchemaLocation="http://sumo.dlr.de/xsd/neteditConfiguration.xsd">

    <input>
        <sumocfg-file value="C:\Program Files (x86)\Eclipse\Sumo\mynet.sumocfg"/>
        <additional-files value=""/>
        <route-files value="C:\Program Files (x86)\Eclipse\Sumo\mynet.rou.xml"/>
        <sumo-net-file value="C:\Program Files (x86)\Eclipse\Sumo\net2.net.xml"/>
    </input>

    <output>
        <output-file value="C:\Program Files (x86)\Eclipse\Sumo\net2.net.xml"/>
    </output>

    <processing>
        <geometry.min-radius.fix.railways value="false"/>
        <geometry.max-grade.fix value="false"/>
        <offset.disable-normalization value="true"/>
        <lefthand value="0"/>
    </processing>

    <junctions>
        <no-turnarounds value="true"/>
        <junctions.corner-detail value="5"/>
        <junctions.limit-turn-speed value="5.50"/>
        <rectangular-lane-cut value="0"/>
    </junctions>

    <pedestrian>
        <walkingareas value="0"/>
    </pedestrian>

</configuration>
-->

<net version="1.16" junctionCornerDetail="5" limitTurnSpeed="5.50" xmlns:xsi="http://www.w3.org/2001/XMLSchema-instance" xsi:noNamespaceSchemaLocation="http://sumo.dlr.de/xsd/net_file.xsd">

    <location netOffset="0.00,0.00" convBoundary="100.00,100.00,300.00,300.00" origBoundary="0.00,0.00,400.00,400.00" projParameter="!"/>

    <edge id=":C2_0" function="internal">
        <lane id=":C2_0_0" index="0" speed="8.83" length="17.50" shape="188.80,220.00 188.45,213.35 187.40,208.60 185.65,205.75 183.20,204.80"/>
    </edge>
    <edge id=":C2_1" function="internal">
        <lane id=":C2_1_0" index="0" speed="13.89" length="40.13" shape="192.00,220.00 195.20,180.00"/>
        <lane id=":C2_1_1" index="1" speed="13.89" length="40.13" shape="195.20,220.00 198.40,180.00"/>
    </edge>
    <edge id=":C2_3" function="internal">
        <lane id=":C2_3_0" index="0" speed="12.28" length="34.84" shape="198.40,220.00 199.75,210.55 203.80,203.80 210.55,199.75 220.00,198.40"/>
    </edge>
    <edge id=":C2_4" function="internal">
        <lane id=":C2_4_0" index="0" speed="8.83" length="17.50" shape="220.00,214.40 213.35,214.75 208.60,215.80 205.75,217.55 204.80,220.00"/>
    </edge>
    <edge id=":C2_5" function="internal">
        <lane id=":C2_5_0" index="0" speed="13.89" length="37.47" shape="220.00,211.20 207.78,210.20 198.35,208.00 190.54,205.80 183.20,204.80"/>
        <lane id=":C2_5_1" index="1" speed="13.89" length="37.47" shape="220.00,208.00 207.78,207.00 198.35,204.80 190.54,202.60 183.20,201.60"/>
    </edge>
    <edge id=":C2_7" function="internal">
        <lane id=":C2_7_0" index="0" speed="13.13" length="40.00" shape="220.00,204.80 209.15,203.25 201.40,198.60 196.75,190.85 195.20,180.00"/>
        <lane id=":C2_7_1" index="1" speed="12.28" length="34.84" shape="220.00,201.60 210.55,200.25 203.80,196.20 199.75,189.45 198.40,180.00"/>
    </edge>
    <edge id=":C2_9" function="internal">
        <lane id=":C2_9_0" index="0" speed="8.83" length="17.50" shape="214.40,180.00 214.75,186.65 215.80,191.40 217.55,194.25 220.00,195.20"/>
    </edge>
    <edge id=":C2_10" function="internal">
        <lane id=":C2_10_0" index="0" speed="13.89" length="40.61" shape="211.20,180.00 210.20,193.39 208.00,203.85 205.80,212.38 204.80,220.00"/>
        <lane id=":C2_10_1" index="1" speed="13.89" length="40.61" shape="208.00,180.00 207.00,193.39 204.80,203.85 202.60,212.38 201.60,220.00"/>
    </edge>
    <edge id=":C2_12" function="internal">
        <lane id=":C2_12_0" index="0" speed="12.72" length="37.45" shape="204.80,180.00 203.45,190.85 199.40,198.60 192.65,203.25 183.20,204.80"/>
        <lane id=":C2_12_1" index="1" speed="11.84" length="32.30" shape="201.60,180.00 200.45,189.45 197.00,196.20 191.25,200.25 183.20,201.60"/>
    </edge>
    <edge id=":C2_14" function="internal">
        <lane id=":C2_14_0" index="0" speed="8.10" length="14.57" shape="183.20,185.60 188.45,185.25 192.20,184.20 194.45,182.45 195.20,180.00"/>
    </edge>
    <edge id=":C2_15" function="internal">
        <lane id=":C2_15_0" index="0" speed="13.89" length="37.47" shape="183.20,188.80 195.42,189.80 204.85,192.00 212.66,194.20 220.00,195.20"/>
        <lane id=":C2_15_1" index="1" speed="13.89" length="37.47" shape="183.20,192.00 195.42,193.00 204.85,195.20 212.66,197.40 220.00,198.40"/>
    </edge>
    <edge id=":C2_17" function="internal">
        <lane id=":C2_17_0" index="0" speed="12.72" length="37.45" shape="183.20,195.20 192.65,196.75 199.40,201.40 203.45,209.15 204.80,220.00"/>
        <lane id=":C2_17_1" index="1" speed="11.84" length="32.30" shape="183.20,198.40 191.25,199.75 197.00,203.80 200.45,210.55 201.60,220.00"/>
    </edge>

    <edge id="B2C2" from="B2" to="C2" priority="-1">
        <lane id="B2C2_0" index="0" speed="13.89" length="83.20" shape="100.00,185.60 183.20,185.60"/>
        <lane id="B2C2_1" index="1" speed="13.89" length="83.20" shape="100.00,188.80 183.20,188.80"/>
        <lane id="B2C2_2" index="2" speed="13.89" length="83.20" shape="100.00,192.00 183.20,192.00"/>
        <lane id="B2C2_3" index="3" speed="13.89" length="83.20" shape="100.00,195.20 183.20,195.20"/>
        <lane id="B2C2_4" index="4" speed="13.89" length="83.20" shape="100.00,198.40 183.20,198.40"/>
    </edge>
    <edge id="C1C2" from="C1" to="C2" priority="-1">
        <lane id="C1C2_0" index="0" speed="13.89" length="80.00" shape="214.40,100.00 214.40,180.00"/>
        <lane id="C1C2_1" index="1" speed="13.89" length="80.00" shape="211.20,100.00 211.20,180.00"/>
        <lane id="C1C2_2" index="2" speed="13.89" length="80.00" shape="208.00,100.00 208.00,180.00"/>
        <lane id="C1C2_3" index="3" speed="13.89" length="80.00" shape="204.80,100.00 204.80,180.00"/>
        <lane id="C1C2_4" index="4" speed="13.89" length="80.00" shape="201.60,100.00 201.60,180.00"/>
    </edge>
    <edge id="C2B2" from="C2" to="B2" priority="-1">
        <lane id="C2B2_0" index="0" speed="13.89" length="83.20" shape="183.20,204.80 100.00,204.80"/>
        <lane id="C2B2_1" index="1" speed="13.89" length="83.20" shape="183.20,201.60 100.00,201.60"/>
    </edge>
    <edge id="C2C1" from="C2" to="C1" priority="-1">
        <lane id="C2C1_0" index="0" speed="13.89" length="80.00" shape="195.20,180.00 195.20,100.00"/>
        <lane id="C2C1_1" index="1" speed="13.89" length="80.00" shape="198.40,180.00 198.40,100.00"/>
    </edge>
    <edge id="C2C3" from="C2" to="C3" priority="-1">
        <lane id="C2C3_0" index="0" speed="13.89" length="80.00" shape="204.80,220.00 204.80,300.00"/>
        <lane id="C2C3_1" index="1" speed="13.89" length="80.00" shape="201.60,220.00 201.60,300.00"/>
    </edge>
    <edge id="C2D2" from="C2" to="D2" priority="-1">
        <lane id="C2D2_0" index="0" speed="13.89" length="80.00" shape="220.00,195.20 300.00,195.20"/>
        <lane id="C2D2_1" index="1" speed="13.89" length="80.00" shape="220.00,198.40 300.00,198.40"/>
    </edge>
    <edge id="C3C2" from="C3" to="C2" priority="-1">
        <lane id="C3C2_0" index="0" speed="13.89" length="80.00" shape="188.80,300.00 188.80,220.00"/>
        <lane id="C3C2_1" index="1" speed="13.89" length="80.00" shape="192.00,300.00 192.00,220.00"/>
        <lane id="C3C2_2" index="2" speed="13.89" length="80.00" shape="195.20,300.00 195.20,220.00"/>
        <lane id="C3C2_3" index="3" speed="13.89" length="80.00" shape="198.40,300.00 198.40,220.00"/>
    </edge>
    <edge id="D2C2" from="D2" to="C2" priority="-1">
        <lane id="D2C2_0" index="0" speed="13.89" length="80.00" shape="300.00,214.40 220.00,214.40"/>
        <lane id="D2C2_1" index="1" speed="13.89" length="80.00" shape="300.00,211.20 220.00,211.20"/>
        <lane id="D2C2_2" index="2" speed="13.89" length="80.00" shape="300.00,208.00 220.00,208.00"/>
        <lane id="D2C2_3" index="3" speed="13.89" length="80.00" shape="300.00,204.80 220.00,204.80"/>
        <lane id="D2C2_4" index="4" speed="13.89" length="80.00" shape="300.00,201.60 220.00,201.60"/>
    </edge>

    <tlLogic id="C2" type="static" programID="0" offset="0">
        <phase duration="3"  state="rrrrGGGrrrrrrrGGGrr"/>
        <phase duration="3"  state="rrrryyyrrrrrrryyyrr"/>
        <phase duration="2"  state="GrrrrrrGGGrrrrrrrGG"/>
        <phase duration="3"  state="yrrrrrryyyrrrrrrryy"/>
        <phase duration="2"  state="GGGrrrrrrGGGrrrrrrr"/>
        <phase duration="3"  state="yyyrrrrrryyyrrrrrrr"/>
        <phase duration="2"  state="rrrGGrrrrrrrGGGrrrr"/>
        <phase duration="3"  state="rrryyrrrrrrryyyrrrr"/>
        <phase duration="2"  state="GrrrGrrrrGGGGGrrrrr"/>
        <phase duration="3"  state="yrrryrrrryyyyyrrrrr"/>
        <phase duration="2"  state="GrrrrrrrrrrrrrGGGGG"/>
        <phase duration="3"  state="yrrrrrrrrrrrrryyyyy"/>
        <phase duration="2"  state="GrrrrrrrrGrrrrGrrrG"/>
        <phase duration="3"  state="yrrrrrrrryrrrryrrry"/>
        <phase duration="2"  state="rrrrGGGGGGrrrrrrrrr"/>
        <phase duration="3"  state="rrrryyyyyyrrrrrrrrr"/>
        <phase duration="2"  state="GGGGGrrrrrrrrrrrrrr"/>
    </tlLogic>

    <junction id="B2" type="dead_end" x="100.00" y="200.00" incLanes="C2B2_0 C2B2_1" intLanes="" shape="100.00,200.00 100.00,206.40 100.00,200.00"/>
    <junction id="C1" type="dead_end" x="200.00" y="100.00" incLanes="C2C1_0 C2C1_1" intLanes="" shape="200.00,100.00 193.60,100.00 200.00,100.00"/>
    <junction id="C2" type="traffic_light" x="200.00" y="200.00" incLanes="C3C2_0 C3C2_1 C3C2_2 C3C2_3 D2C2_0 D2C2_1 D2C2_2 D2C2_3 D2C2_4 C1C2_0 C1C2_1 C1C2_2 C1C2_3 C1C2_4 B2C2_0 B2C2_1 B2C2_2 B2C2_3 B2C2_4" intLanes=":C2_0_0 :C2_1_0 :C2_1_1 :C2_3_0 :C2_4_0 :C2_5_0 :C2_5_1 :C2_7_0 :C2_7_1 :C2_9_0 :C2_10_0 :C2_10_1 :C2_12_0 :C2_12_1 :C2_14_0 :C2_15_0 :C2_15_1 :C2_17_0 :C2_17_1" shape="187.20,220.00 206.40,220.00 207.91,217.78 209.80,217.00 212.44,216.44 215.84,216.11 220.00,216.00 220.00,193.60 217.78,192.09 217.00,190.20 216.44,187.56 216.11,184.16 216.00,180.00 193.60,180.00 192.44,182.22 191.00,183.00 188.98,183.56 186.38,183.89 183.20,184.00 183.20,206.40 185.42,207.91 186.20,209.80 186.76,212.44 187.09,215.84">
        <request index="0"  response="0000000000001100000" foes="0000011000001100000" cont="0"/>
        <request index="1"  response="1111100000111100000" foes="1111111000111100000" cont="0"/>
        <request index="2"  response="0000000000000000000" foes="1111111000111100000" cont="0"/>
        <request index="3"  response="1111000110111100000" foes="1111000110111100000" cont="0"/>
        <request index="4"  response="0000000000000000000" foes="1100000110000000000" cont="0"/>
        <request index="5"  response="0000000000000000000" foes="1100011110000001111" cont="0"/>
        <request index="6"  response="0000000000000000000" foes="1100011110000001111" cont="0"/>
        <request index="7"  response="0011100000000000000" foes="0011111110000001110" cont="0"/>
        <request index="8"  response="0011100000000000000" foes="0011111110000001110" cont="0"/>
        <request index="9"  response="0011000000000000000" foes="0011000000000000000" cont="0"/>
        <request index="10" response="1111000000111110000" foes="1111000000111111000" cont="0"/>
        <request index="11" response="1111000000111110000" foes="1111000000111111000" cont="0"/>
        <request index="12" response="1111000000111100111" foes="1111000000111100111" cont="0"/>
        <request index="13" response="1111000000111100111" foes="1111000000111100111" cont="0"/>
        <request index="14" response="0000000000000000000" foes="0000000000110000110" cont="0"/>
        <request index="15" response="0000000000000000000" foes="0000011111110001110" cont="0"/>
        <request index="16" response="0000000000000000000" foes="0000011111110001110" cont="0"/>
        <request index="17" response="0000000000001110000" foes="0000011110001111110" cont="0"/>
        <request index="18" response="0000000000001110000" foes="0000011110001111110" cont="0"/>
    </junction>
    <junction id="C3" type="dead_end" x="200.00" y="300.00" incLanes="C2C3_0 C2C3_1" intLanes="" shape="200.00,300.00 206.40,300.00 200.00,300.00"/>
    <junction id="D2" type="dead_end" x="300.00" y="200.00" incLanes="C2D2_0 C2D2_1" intLanes="" shape="300.00,200.00 300.00,193.60 300.00,200.00"/>

    <connection from="B2C2" to="C2C1" fromLane="0" toLane="0" pass="1" via=":C2_14_0" tl="C2" linkIndex="14" dir="r" state="O"/>
    <connection from="B2C2" to="C2D2" fromLane="1" toLane="0" via=":C2_15_0" tl="C2" linkIndex="15" dir="s" state="O"/>
    <connection from="B2C2" to="C2D2" fromLane="2" toLane="1" via=":C2_15_1" tl="C2" linkIndex="16" dir="s" state="O"/>
    <connection from="B2C2" to="C2C3" fromLane="3" toLane="0" via=":C2_17_0" tl="C2" linkIndex="17" dir="l" state="o"/>
    <connection from="B2C2" to="C2C3" fromLane="4" toLane="1" via=":C2_17_1" tl="C2" linkIndex="18" dir="l" state="o"/>
    <connection from="C1C2" to="C2D2" fromLane="0" toLane="0" via=":C2_9_0" tl="C2" linkIndex="9" dir="r" state="o"/>
    <connection from="C1C2" to="C2C3" fromLane="1" toLane="0" via=":C2_10_0" tl="C2" linkIndex="10" dir="s" state="o"/>
    <connection from="C1C2" to="C2C3" fromLane="2" toLane="1" via=":C2_10_1" tl="C2" linkIndex="11" dir="s" state="o"/>
    <connection from="C1C2" to="C2B2" fromLane="3" toLane="0" via=":C2_12_0" tl="C2" linkIndex="12" dir="l" state="o"/>
    <connection from="C1C2" to="C2B2" fromLane="4" toLane="1" via=":C2_12_1" tl="C2" linkIndex="13" dir="l" state="o"/>
    <connection from="C3C2" to="C2B2" fromLane="0" toLane="0" via=":C2_0_0" tl="C2" linkIndex="0" dir="r" state="o"/>
    <connection from="C3C2" to="C2C1" fromLane="1" toLane="0" via=":C2_1_0" tl="C2" linkIndex="1" dir="s" state="o"/>
    <connection from="C3C2" to="C2C1" fromLane="2" toLane="1" pass="1" via=":C2_1_1" tl="C2" linkIndex="2" dir="s" state="O"/>
    <connection from="C3C2" to="C2D2" fromLane="3" toLane="1" via=":C2_3_0" tl="C2" linkIndex="3" dir="l" state="o"/>
    <connection from="D2C2" to="C2C3" fromLane="0" toLane="0" via=":C2_4_0" tl="C2" linkIndex="4" dir="r" state="O"/>
    <connection from="D2C2" to="C2B2" fromLane="1" toLane="0" via=":C2_5_0" tl="C2" linkIndex="5" dir="s" state="O"/>
    <connection from="D2C2" to="C2B2" fromLane="2" toLane="1" via=":C2_5_1" tl="C2" linkIndex="6" dir="s" state="O"/>
    <connection from="D2C2" to="C2C1" fromLane="3" toLane="0" via=":C2_7_0" tl="C2" linkIndex="7" dir="l" state="o"/>
    <connection from="D2C2" to="C2C1" fromLane="4" toLane="1" via=":C2_7_1" tl="C2" linkIndex="8" dir="l" state="o"/>

    <connection from=":C2_0" to="C2B2" fromLane="0" toLane="0" dir="r" state="M"/>
    <connection from=":C2_1" to="C2C1" fromLane="0" toLane="0" dir="s" state="M"/>
    <connection from=":C2_1" to="C2C1" fromLane="1" toLane="1" dir="s" state="M"/>
    <connection from=":C2_3" to="C2D2" fromLane="0" toLane="1" dir="l" state="M"/>
    <connection from=":C2_4" to="C2C3" fromLane="0" toLane="0" dir="r" state="M"/>
    <connection from=":C2_5" to="C2B2" fromLane="0" toLane="0" dir="s" state="M"/>
    <connection from=":C2_5" to="C2B2" fromLane="1" toLane="1" dir="s" state="M"/>
    <connection from=":C2_7" to="C2C1" fromLane="0" toLane="0" dir="l" state="M"/>
    <connection from=":C2_7" to="C2C1" fromLane="1" toLane="1" dir="l" state="M"/>
    <connection from=":C2_9" to="C2D2" fromLane="0" toLane="0" dir="r" state="M"/>
    <connection from=":C2_10" to="C2C3" fromLane="0" toLane="0" dir="s" state="M"/>
    <connection from=":C2_10" to="C2C3" fromLane="1" toLane="1" dir="s" state="M"/>
    <connection from=":C2_12" to="C2B2" fromLane="0" toLane="0" dir="l" state="M"/>
    <connection from=":C2_12" to="C2B2" fromLane="1" toLane="1" dir="l" state="M"/>
    <connection from=":C2_14" to="C2C1" fromLane="0" toLane="0" dir="r" state="M"/>
    <connection from=":C2_15" to="C2D2" fromLane="0" toLane="0" dir="s" state="M"/>
    <connection from=":C2_15" to="C2D2" fromLane="1" toLane="1" dir="s" state="M"/>
    <connection from=":C2_17" to="C2C3" fromLane="0" toLane="0" dir="l" state="M"/>
    <connection from=":C2_17" to="C2C3" fromLane="1" toLane="1" dir="l" state="M"/>

</net>
