<?xml version="1.0" encoding="UTF-8"?>

<!-- generated on 2024-04-26 11:44:34 by Eclipse SUMO netedit Version 1.19.0
<configuration xmlns:xsi="http://www.w3.org/2001/XMLSchema-instance" xsi:noNamespaceSchemaLocation="http://sumo.dlr.de/xsd/neteditConfiguration.xsd">

    <input>
        <sumocfg-file value="C:\Program Files (x86)\Eclipse\Sumo\mynet.sumocfg"/>
        <additional-files value=""/>
        <route-files value="C:\Program Files (x86)\Eclipse\Sumo\mynet.rou.xml"/>
        <sumo-net-file value="C:\Program Files (x86)\Eclipse\Sumo\../../../Program Files (x86)/Eclipse/Sumo/bin/test"/>
    </input>

    <processing>
        <geometry.min-radius.fix.railways value="false"/>
        <geometry.max-grade.fix value="false"/>
        <offset.disable-normalization value="true"/>
        <lefthand value="0"/>
    </processing>

    <junctions>
        <no-turnarounds value="true"/>
        <junctions.corner-detail value="5"/>
        <junctions.limit-turn-speed value="5.50"/>
        <rectangular-lane-cut value="0"/>
    </junctions>

    <pedestrian>
        <walkingareas value="0"/>
    </pedestrian>

</configuration>
-->

<nodes version="1.16" xmlns:xsi="http://www.w3.org/2001/XMLSchema-instance" xsi:noNamespaceSchemaLocation="http://sumo.dlr.de/xsd/nodes_file.xsd">
    <location netOffset="0.00,0.00" convBoundary="100.00,100.00,300.00,300.00" origBoundary="0.00,0.00,400.00,400.00" projParameter="!"/>

    <node id="B2" x="100.00" y="200.00" type="dead_end"/>
    <node id="C1" x="200.00" y="100.00" type="dead_end"/>
    <node id="C2" x="200.00" y="200.00" type="traffic_light" tl="C2"/>
    <node id="C3" x="200.00" y="300.00" type="dead_end"/>
    <node id="D2" x="300.00" y="200.00" type="dead_end"/>
</nodes>
