<?xml version="1.0" encoding="UTF-8"?>

<!-- generated on 2024-04-26 11:44:34 by Eclipse SUMO netedit Version 1.19.0
<configuration xmlns:xsi="http://www.w3.org/2001/XMLSchema-instance" xsi:noNamespaceSchemaLocation="http://sumo.dlr.de/xsd/neteditConfiguration.xsd">

    <input>
        <sumocfg-file value="C:\Program Files (x86)\Eclipse\Sumo\mynet.sumocfg"/>
        <additional-files value=""/>
        <route-files value="C:\Program Files (x86)\Eclipse\Sumo\mynet.rou.xml"/>
        <sumo-net-file value="C:\Program Files (x86)\Eclipse\Sumo\../../../Program Files (x86)/Eclipse/Sumo/bin/test"/>
    </input>

    <processing>
        <geometry.min-radius.fix.railways value="false"/>
        <geometry.max-grade.fix value="false"/>
        <offset.disable-normalization value="true"/>
        <lefthand value="0"/>
    </processing>

    <junctions>
        <no-turnarounds value="true"/>
        <junctions.corner-detail value="5"/>
        <junctions.limit-turn-speed value="5.50"/>
        <rectangular-lane-cut value="0"/>
    </junctions>

    <pedestrian>
        <walkingareas value="0"/>
    </pedestrian>

</configuration>
-->

<edges version="1.16" xmlns:xsi="http://www.w3.org/2001/XMLSchema-instance" xsi:noNamespaceSchemaLocation="http://sumo.dlr.de/xsd/edges_file.xsd">
    <edge id="B2C2" from="B2" to="C2" priority="-1" numLanes="5" speed="13.89"/>
    <edge id="C1C2" from="C1" to="C2" priority="-1" numLanes="5" speed="13.89"/>
    <edge id="C2B2" from="C2" to="B2" priority="-1" numLanes="2" speed="13.89"/>
    <edge id="C2C1" from="C2" to="C1" priority="-1" numLanes="2" speed="13.89"/>
    <edge id="C2C3" from="C2" to="C3" priority="-1" numLanes="2" speed="13.89"/>
    <edge id="C2D2" from="C2" to="D2" priority="-1" numLanes="2" speed="13.89"/>
    <edge id="C3C2" from="C3" to="C2" priority="-1" numLanes="4" speed="13.89"/>
    <edge id="D2C2" from="D2" to="C2" priority="-1" numLanes="5" speed="13.89"/>
</edges>
